import os

from gw_stream_temp.getNetworkData import get_NHM_gis_data, make_vpu_dict, get_NHDPlus_gis_data, unzip_NHDPlus_gis_data
from gw_stream_temp.getGWModelArchive import get_gw_archive_data, unzip_gw_archive_data, get_model_list
from gw_stream_temp.preprocessMODFLOW import make_model_shapefile, compile_model_outputs
from gw_stream_temp.combineNetworkMODFLOW import get_catchment_nodes,compile_catchment_discharge, aggregate_catchment_discharge

dictionaryDir = config['dictionaryDir']
dictionaryModelName = config['dictionaryModelName']
outputDir = config['outputDir']
modelName = config['modelName']


idxDict = {'NHM':'seg_id_nat', 'NHDPlus':'COMID'}


rule all:
	input:
		expand('{outputDir}/MODFLOW_Discharge_{networkCode}_{modelName}.feather',
		outputDir = outputDir, networkCode = config['networkCodes'],modelName = modelName)

rule compile_discharge:
    input:
        '{outputDir}/CompiledOutputs/drn_obs.csv',
        '{dictionaryDir}/CompiledOutputs/upstream_catch_dict_{networkCode}_{dictionaryModelName}.npy'
    output:
        '{outputDir}/CatchmentDischarge_{networkCode}_{modelName}.feather',
    run:
        compile_catchment_discharge_csv(input[0],idxDict[wildcards.networkCode],input[1],output[0])		
	

rule aggregate_discharge:
    input:
        expand('{outputDir}/CatchmentDischarge_{networkCode}_{modelName}.feather',outputDir = outputDir, networkCode = config['networkCodes'],modelName = modelName)
    output:
        '{outputDir}/MODFLOW_Discharge_{networkCode}_{modelName}.feather',
    run:
        aggregate_catchment_discharge(input,output[0], idxDict[wildcards.networkCode])	
